src/examples/case14_twoarea/two_area_02pulim_1_5/res_branch_2.csv
branch,from_bus,to_bus,X,B,G,Bfr,Bto,p_from,p_to,q_from,q_to,p_loss,q_loss,s_from,s_to,rate_a,ang_deg,angmin,angmax
7,4,5,0.035091666666666674,-24.893929112009626,9.470452253013397,8.280435962304609e-15,3.589795039622819e-21,0.19921528946530057,-0.19864398421283125,0.017699672124711394,-0.0161979452680216,0.0005713052524693174,0.0015017268566897939,0.2000000248751629,0.19930330126431264,0.2,0.415491778876826,-60.0001403060998,60.0001403060998
4,2,4,0.14693333333333336,-5.885295774936344,2.327549030046836,0.014166666666666668,0.014166666666666668,0.10089277662974468,-0.09928580059067096,-0.13527910766262746,0.11321237757013244,0.0016069760390737126,-0.02206673009249502,0.16875956075451343,0.1505812492776332,0.2,1.3631104636660816,-60.0001403060998,60.0001403060998
2,1,5,0.18586666666666668,-4.960987561041109,1.4421206487968925,0.020499999999908383,0.0205,0.17364534744944793,-0.17171142190236469,-0.07346290606771841,0.04211758448544862,0.0019339255470832428,-0.03134532158226979,0.18854576436174297,0.17680131033061036,0.2,2.1778490844883276,-60.0001403060998,60.0001403060998
3,2,3,0.164975,-5.606663082452083,1.596951648700856,0.018249999999993154,0.01824999999981196,0.24326869327816517,-0.2401990618780361,-0.0007507538892181657,-0.021201236132621152,0.003069631400129058,-0.021951990021839316,0.24326985172986024,0.24113291301819373,0.2,2.5178872567393804,-60.0001403060998,60.0001403060998
5,2,5,0.14490000000000003,-5.977892318521839,2.3494890789497362,0.014416666666659863,0.014416666666666668,0.14999677434614198,-0.14769930769552142,-0.1322912591277092,0.11163936283628957,0.0022974666506205554,-0.020651896291419627,0.20000002388960392,0.18514435672801108,0.2,1.7786022425429076,-60.0001403060998,60.0001403060998
6,3,4,0.142525,-5.746114879729408,2.701611353030502,0.005333333333333334,0.0053333333334360375,-0.17280092812219575,0.17573860729995702,-0.09892689181771175,0.09547749411782329,0.0029376791777612765,-0.0034493976998884596,0.1991147676205999,0.20000002494686717,0.2,-1.154776793073299,-60.0001403060998,60.0001403060998
1,1,2,0.04930833333333334,-17.566853542948998,6.904423626750411,0.021999999999908385,0.021999999999894455,0.1665387146507802,-0.16577350807564217,0.07346289619451497,-0.11188902536255878,0.0007652065751380388,-0.038426129168043804,0.18202181351371072,0.20000002494071925,0.2,0.3992468419454199,-60.0001403060998,60.0001403060998
